<routes>
  <vType id="car" accel="2.0" decel="4.5" sigma="0.5" length="5" minGap="2.5" maxSpeed="16.67" />
  <flow id="w2e" type="car" begin="0" end="3600" probability="0.05" from="A0B0" to="C0D0"/>
  <flow id="e2w" type="car" begin="0" end="3600" probability="0.05" from="C0D0" to="A0B0"/>
  <flow id="s2n" type="car" begin="0" end="3600" probability="0.05" from="A0A1" to="A2A3"/>
  <flow id="n2s" type="car" begin="0" end="3600" probability="0.05" from="A2A3" to="A0A1"/>
</routes>
